STAAD SPACE
START JOB INFORMATION
ENGINEER DATE 06-Sep-26
JOB NAME Single Gable 24m with 2@12 Width Modules
JOB CLIENT PARAMETRIC PORTAL GENERATOR
END JOB INFORMATION
INPUT WIDTH 79
UNIT METER KN
JOINT COORDINATES
1 0.0000 7.0000 50.0000;
2 5.0000 7.5000 50.0000;
3 6.0000 7.6000 50.0000;
4 9.0000 7.9000 50.0000;
5 12.0000 8.2000 50.0000;
6 13.0000 8.1000 50.0000;
7 18.0000 7.6000 50.0000;
8 24.0000 7.0000 50.0000;
9 0.0000 0.0000 50.0000;
10 0.0000 2.2000 50.0000;
11 0.0000 5.0000 50.0000;
12 0.8000 5.0000 50.0000;
13 24.0000 0.0000 50.0000;
14 24.0000 2.2000 50.0000;
15 24.0000 5.0000 50.0000;
16 23.2000 5.0000 50.0000;
17 5.0000 0.0000 50.0000;
18 5.0000 2.2000 50.0000;
19 9.0000 0.0000 50.0000;
20 9.0000 2.2000 50.0000;
# ... 197 like lines cut
MEMBER INCIDENCES
1 1 2;
2 2 3;
3 3 4;
4 4 5;
5 5 6;
6 6 7;
7 7 8;
8 11 12;
9 9 10;
10 10 11;
11 11 1;
12 15 16;
13 13 14;
14 14 15;
15 15 8;
16 17 18;
17 18 2;
18 19 20;
19 20 4;
20 21 22;
# ... 320 like lines cut
START GROUP DEFINITION
MEMBER
_FRAME 1 TO 7 9 TO 11 13 TO 15 24 TO 30 32 TO 34 36 TO 38 40 TO 48 -
50 TO 52 54 TO 56 58 TO 66 68 TO 70 72 TO 74 76 TO 84 86 TO 88 90 TO 92 -
94 TO 102 104 TO 106 108 TO 110 112 TO 120 122 TO 124 126 TO 128 -
130 TO 138 140 TO 142 144 TO 146 148 TO 156 158 TO 160 162 TO 164 -
166 TO 174 176 TO 178 180 TO 182 184 TO 192 194 TO 196 198 TO 200
_COLUMNS 9 TO 11 13 TO 15 32 TO 34 36 TO 38 40 TO 41 50 TO 52 54 TO 56 -
58 TO 59 68 TO 70 72 TO 74 76 TO 77 86 TO 88 90 TO 92 94 TO 95 -
104 TO 106 108 TO 110 112 TO 113 122 TO 124 126 TO 128 130 TO 131 -
140 TO 142 144 TO 146 148 TO 149 158 TO 160 162 TO 164 166 TO 167 -
176 TO 178 180 TO 182 184 TO 185 194 TO 196 198 TO 200
_RAFTERS 1 TO 7 24 TO 30 42 TO 48 60 TO 66 78 TO 84 96 TO 102 114 TO 120 -
132 TO 138 150 TO 156 168 TO 174 186 TO 192
_STRUTS 207 TO 214 233 TO 264 283 TO 322
_BRACING 215 TO 232 265 TO 282 323 TO 340
_ROOFBRACING 215 TO 228 265 TO 278 323 TO 336
_WALLBRACING 229 TO 232 279 TO 282 337 TO 340
_GABLEPOSTS 16 TO 23 201 TO 206
_CABLETRAY 8 12 31 35 39 49 53 57 67 71 75 85 89 93 103 107 111 121 125 -
129 139 143 147 157 161 165 175 179 183 193 197
END GROUP DEFINITION
DEFINE MATERIAL START
ISOTROPIC STEEL
E 2.05e+08
POISSON 0.3
DENSITY 76.8195
ALPHA 1.2e-05
DAMP 0.03
G 7.88462e+07
TYPE STEEL
STRENGTH RY 1.5 RT 1.2
END DEFINE MATERIAL
MEMBER PROPERTY INDIAN
9 TO 11 13 TO 15 32 TO 34 36 TO 38 40 TO 41 50 TO 52 54 TO 56 58 TO 59 -
68 TO 70 72 TO 74 76 TO 77 86 TO 88 90 TO 92 94 TO 95 104 TO 106 -
108 TO 110 112 TO 113 122 TO 124 126 TO 128 130 TO 131 140 TO 142 -
144 TO 146 148 TO 149 158 TO 160 162 TO 164 166 TO 167 176 TO 178 -
180 TO 182 184 TO 185 194 TO 196 198 TO 200 TABLE ST ISMB450
1 TO 7 24 TO 30 42 TO 48 60 TO 66 78 TO 84 96 TO 102 114 TO 120 -
132 TO 138 150 TO 156 168 TO 174 186 TO 192 TABLE ST ISMB400
207 TO 214 233 TO 264 283 TO 322 TABLE ST ISMC150
215 TO 232 265 TO 282 323 TO 340 TABLE ST ISA65X65X6
16 TO 23 201 TO 206 TABLE ST ISMB250
8 12 31 35 39 49 53 57 67 71 75 85 89 93 103 107 111 121 125 129 139 143 -
147 157 161 165 175 179 183 193 197 TABLE ST ISMC100
CONSTANTS
BETA 90 MEMB 16 TO 23 201 TO 206
MATERIAL STEEL ALL
******MEMBER SPECIFICATION
MEMBER TENSION
215 TO 232 265 TO 282 323 TO 340
MEMBER TRUSS
207 TO 214 233 TO 264 283 TO 322
MEMBER RELEASE
17 19 21 23 202 204 206 END MY MZ
SUPPORTS
9 13 33 37 52 56 71 75 90 94 109 113 128 132 147 151 166 170 185 189 204 -
208 FIXED
17 19 21 23 41 60 79 98 117 136 155 174 193 212 214 216 PINNED
LOADING 1 LOADTYPE Dead TITLE DEAD LOAD
SELFWEIGHT Y -1.0
LOADING 2 LOADTYPE Live TITLE ROOF LIVE LOAD
LOADING 3 LOADTYPE Wind TITLE WIND LOAD +X
LOADING 4 LOADTYPE Wind TITLE WIND LOAD +Z
PERFORM ANALYSIS PRINT ALL
FINISH
